*Heading
** Job name: Job-BeamHex Model name: Model-1
** Generated by: Abaqus/CAE 6.14-1
*Preprint, echo=NO, model=NO, history=NO, contact=NO
**
** PARTS
**
*Part, name=Part-1
*Node
      1,        -100.,         -10.,           5.
      2,        -100.,          -5.,           5.
      3,        -100.,           0.,           5.
      4,        -100.,           5.,           5.
      5,        -100.,          10.,           5.
      6,        -100.,         -10.,           0.
      7,        -100.,          -5.,           0.
      8,        -100.,           0.,           0.
      9,        -100.,           5.,           0.
     10,        -100.,          10.,           0.
     11,   -93.103447,         -10.,           5.
     12,   -93.103447,          -5.,           5.
     13,   -93.103447,           0.,           5.
     14,   -93.103447,           5.,           5.
     15,   -93.103447,          10.,           5.
     16,   -93.103447,         -10.,           0.
     17,   -93.103447,          -5.,           0.
     18,   -93.103447,           0.,           0.
     19,   -93.103447,           5.,           0.
     20,   -93.103447,          10.,           0.
** ... 960 like lines cut
*Element, type=C3D20R
  1,  11,  12,  17,  16,   1,   2,   7,   6, 304, 303, 302, 301, 305, 306, 307,
     308, 310, 309, 311, 312
  2,  12,  13,  18,  17,   2,   3,   8,   7, 315, 314, 313, 303, 316, 317, 318,
     306, 309, 319, 320, 311
  3,  13,  14,  19,  18,   3,   4,   9,   8, 323, 322, 321, 314, 324, 325, 326,
     317, 319, 327, 328, 320
  4,  14,  15,  20,  19,   4,   5,  10,   9, 331, 330, 329, 322, 332, 333, 334,
     325, 327, 335, 336, 328
  5,  21,  22,  27,  26,  11,  12,  17,  16, 340, 339, 338, 337, 304, 303, 302,
     301, 342, 341, 343, 344
  6,  22,  23,  28,  27,  12,  13,  18,  17, 347, 346, 345, 339, 315, 314, 313,
     303, 341, 348, 349, 343
  7,  23,  24,  29,  28,  13,  14,  19,  18, 352, 351, 350, 346, 323, 322, 321,
     314, 348, 353, 354, 349
  8,  24,  25,  30,  29,  14,  15,  20,  19, 357, 356, 355, 351, 331, 330, 329,
     322, 353, 358, 359, 354
  9,  31,  32,  37,  36,  21,  22,  27,  26, 363, 362, 361, 360, 340, 339, 338,
     337, 365, 364, 366, 367
 10,  32,  33,  38,  37,  22,  23,  28,  27, 370, 369, 368, 362, 347, 346, 345,
     339, 364, 371, 372, 366
** ... 212 like lines cut
*Nset, nset=Set-1, generate
   1,  980,    1
*Elset, elset=Set-1, generate
   1,  116,    1
** Section: Section-1
*Solid Section, elset=Set-1, material=Material-1
,
*End Part
**  
**
** ASSEMBLY
**
*Assembly, name=Assembly
**  
*Instance, name=Part-1-1, part=Part-1
*End Instance
**  
*Nset, nset=Set-1, instance=Part-1-1
   1,   2,   3,   4,   5,   6,   7,   8,   9,  10, 305, 306, 307, 308, 316, 317
 318, 324, 325, 326, 332, 333, 334
*Elset, elset=Set-1, instance=Part-1-1, generate
 1,  4,  1
*Nset, nset=Set-2, instance=Part-1-1
 291, 292, 293, 294, 295, 296, 297, 298, 299, 300, 958, 959, 960, 961, 966, 967
 968, 971, 972, 973, 976, 977, 978
*Elset, elset=Set-2, instance=Part-1-1, generate
 113,  116,    1
*Nset, nset=Set-3, instance=Part-1-1
 291, 292, 293, 294, 295, 296, 297, 298, 299, 300, 958, 959, 960, 961, 966, 967
 968, 971, 972, 973, 976, 977, 978
*Elset, elset=Set-3, instance=Part-1-1, generate
 113,  116,    1
*End Assembly
** 
** MATERIALS
** 
*Material, name=Material-1
*Density
 1.93e-15,
*Elastic
148000., 0.23
** 
** BOUNDARY CONDITIONS
** 
** Name: BC-1 Type: Displacement/Rotation
*Boundary
Set-1, 1, 1
Set-1, 2, 2
Set-1, 3, 3
Set-1, 4, 4
Set-1, 5, 5
Set-1, 6, 6
** Name: BC-2 Type: Displacement/Rotation
*Boundary
Set-2, 1, 1
Set-2, 2, 2
Set-2, 4, 4
Set-2, 5, 5
Set-2, 6, 6
** ----------------------------------------------------------------
** 
** STEP: Step-1
** 
*Step, name=Step-1, nlgeom=NO, perturbation
*Frequency, eigensolver=Lanczos, acoustic coupling=on, normalization=displacement
6, , , , , 
** 
** OUTPUT REQUESTS
** 
*Restart, write, frequency=0
** 
** FIELD OUTPUT: F-Output-1
** 
*Output, field, variable=PRESELECT
*End Step
** ----------------------------------------------------------------
** 
** STEP: Step-2
** 
*Step, name=Step-2, nlgeom=YES
*Static
1., 1., 1e-05, 1.
** 
** BOUNDARY CONDITIONS
** 
** Name: BC-3 Type: Displacement/Rotation
*Boundary
Set-3, 3, 3, 3.
** 
** OUTPUT REQUESTS
** 
*Restart, write, frequency=0
** 
** FIELD OUTPUT: F-Output-2
** 
*Output, field, variable=PRESELECT
** 
** HISTORY OUTPUT: H-Output-1
** 
*Output, history, variable=PRESELECT
*End Step
** ----------------------------------------------------------------
** 
** STEP: Step-3
** 
*Step, name=Step-3, nlgeom=NO, perturbation
*Frequency, eigensolver=Lanczos, acoustic coupling=on, normalization=displacement
6, , , , , 
** 
** BOUNDARY CONDITIONS
** 
** Name: BC-1 Type: Displacement/Rotation
*Boundary, op=NEW
Set-1, 1, 1
Set-1, 2, 2
Set-1, 3, 3
Set-1, 4, 4
Set-1, 5, 5
Set-1, 6, 6
** Name: BC-2 Type: Displacement/Rotation
*Boundary, op=NEW
Set-2, 1, 1
Set-2, 2, 2
Set-2, 4, 4
Set-2, 5, 5
Set-2, 6, 6
** Name: BC-3 Type: Displacement/Rotation
*Boundary, op=NEW
** 
** OUTPUT REQUESTS
** 
*Restart, write, frequency=0
** 
** FIELD OUTPUT: F-Output-1
** 
*Output, field, variable=PRESELECT
*End Step
